432
# CELL{H}: 72.2358396 -36.1179198 0 0 62.55807216 0 0 0 28.34589185
       S    -0.024929840     3.453166725     2.907702549
      Mo     0.128059003    -0.113154487     0.000003220
       S    -0.024936206     3.453167777    -2.907695205
       S    -2.987496071     8.687789007     3.042501228
      Mo    -3.038952784     5.347783148     0.000007407
       S    -2.987499223     8.687787522    -3.042487539
       S    -6.029894089    13.896568380     2.914640201
      Mo    -5.873812087    10.349520316     0.000008163
       S    -6.029896267    13.896572588    -2.914620402
       S    -9.015908040    19.135083388     3.035030063
      Mo    -9.029797819    15.790965607     0.000012324
       S    -9.015905222    19.135085932    -3.035001840
       S   -12.048704438    24.329236661     2.924434890
      Mo   -11.921538378    20.802783257     0.000012643
       S   -12.048698613    24.329240383    -2.924404986
       S   -15.056029652    29.551492565     3.010420897
      Mo   -15.059935834    26.176496939     0.000012583
       S   -15.056018246    29.551493674    -3.010391392
       S   -18.072844722    34.752839859     2.938516023
      Mo   -17.996189484    31.239346962     0.000009049
       S   -18.072834153    34.752842133    -2.938494432
       S   -21.087944522    39.956335941     3.040843743
      Mo   -21.067230672    36.610275403     0.000005882
       S   -21.087932975    39.956340440    -3.040826833
       S   -24.086295584    45.172446476     2.935087311
      Mo   -23.972315743    41.646269636     0.000002524
       S   -24.086287160    45.172450601    -2.935078215
       S   -27.077496564    50.386622187     3.014825194
      Mo   -27.086862942    47.008119503     0.000002064
       S   -27.077493570    50.386623610    -3.014819106
       S   -30.113037159    55.596477239     2.922908740
      Mo   -30.004345234    52.057938959     0.000001547
       S   -30.113040162    55.596475492    -2.922907478
       S   -33.113477406    60.817762039     3.069348731
      Mo   -33.093281555    57.516189375     0.000001663
       S   -33.113480841    60.817762520    -3.069345183
       S     6.031310249     3.474571808     2.914394161
      Mo     5.848100137    -0.070581964    -0.000000192
       S     6.031303306     3.474568850    -2.914397472
       S     3.015752461     8.698287881     2.930505828
      Mo     3.001891667     5.219356073     0.000000806
       S     3.015743713     8.698287247    -2.930505567
       S    -0.003936724    13.888347598     2.935115379
      Mo    -0.092725262    10.366678635     0.000005001
       S    -0.003942458    13.888347691    -2.935103106
       S    -3.021852481    19.118682020     2.957274572
      Mo    -3.009308743    15.665171773     0.000009599
       S    -3.021854931    19.118686959    -2.957248275
       S    -6.023423051    24.311875794     2.935036133
      Mo    -6.091739161    20.786540182     0.000015349
       S    -6.023421438    24.311881611    -2.935000148
       S    -9.042792841    29.531158060     2.972351059
      Mo    -9.030645792    26.094951819     0.000018671
       S    -9.042788845    29.531162415    -2.972307673
       S   -12.017446606    34.743395979     2.909671461
      Mo   -12.085647476    31.180007042     0.000020517
       S   -12.017438560    34.743397877    -2.909627253
       S   -15.043973010    39.981130784     2.907170648
      Mo   -15.065937428    36.481710665     0.000018165
       S   -15.043966158    39.981132560    -2.907128756
       S   -18.052571889    45.181101622     2.917958790
      Mo   -18.208781344    41.632366456     0.000016349
       S   -18.052563488    45.181101815    -2.917926209
       S   -21.065322765    50.415311729     2.920843998
      Mo   -21.079336409    46.916625454     0.000010182
       S   -21.065317015    50.415308247    -2.920829462
       S   -24.076692631    55.606799448     2.954761972
      Mo   -24.172152196    52.115985041     0.000004025
       S   -24.076691563    55.606793622    -2.954760695
       S   -27.089896289    60.839155323     2.895136319
      Mo   -27.075080863    57.308305466    -0.000001153
       S   -27.089899391    60.839153890    -2.895139913
       S    12.021575593     3.465913856     2.980738694
      Mo    12.158581098     0.028554405    -0.000003856
       S    12.021568427     3.465907692    -2.980755236
       S     9.030320195     8.699751510     3.007254511
      Mo     9.092410279     5.291749202    -0.000006745
       S     9.030311005     8.699749196    -3.007273643
       S     5.994315547    13.886149580     2.979915254
      Mo     6.092953233    10.439187431    -0.000004716
       S     5.994306324    13.886151154    -2.979921471
       S     2.998387584    19.103251325     2.963255582
      Mo     3.040113973    15.636017520     0.000002949
       S     2.998377909    19.103253455    -2.963245893
       S     0.001939545    24.328050839     2.933431708
      Mo    -0.001248890    20.834285932     0.000012082
       S     0.001936440    24.328055985    -2.933400808
       S    -3.025526993    29.533056880     2.972437529
      Mo    -3.004849486    26.092683070     0.000019102
       S    -3.025527191    29.533062238    -2.972392663
       S    -6.026961950    34.745214939     2.929125089
      Mo    -6.030958730    31.223981383     0.000024490
       S    -6.026958111    34.745217945    -2.929071079
       S    -8.999662787    39.952293491     3.063191948
      Mo    -8.994257828    36.639251895     0.000026318
       S    -8.999657581    39.952295598    -3.063135563
       S   -12.053073304    45.172301169     2.903324087
      Mo   -11.863585665    41.600822215     0.000025210
       S   -12.053067386    45.172297541    -2.903277684
       S   -15.051452899    50.425276437     3.048131633
      Mo   -15.064946357    47.100268459     0.000018893
       S   -15.051446171    50.425270441    -3.048102897
       S   -18.072613539    55.609688366     2.931993605
      Mo   -17.937076206    52.095519720     0.000008497
       S   -18.072608448    55.609682224    -2.931985204
       S   -21.059212888    60.818230843     3.008894937
      Mo   -21.089945849    57.421071674     0.000000371
       S   -21.059215651    60.818223569    -3.008899999
       S    18.071144091     3.453669449     2.933846352
      Mo    17.986703986    -0.041329793    -0.000005960
       S    18.071140178     3.453657939    -2.933873317
       S    15.062974069     8.690408939     2.900654875
      Mo    14.990282690     5.127190368    -0.000014384
       S    15.062965567     8.690403668    -2.900691082
       S    12.056653480    13.923445502     2.883298850
      Mo    11.958881515    10.372400298    -0.000014686
       S    12.056643151    13.923446321    -2.883327618
       S     9.020449990    19.117945756     2.943519623
      Mo     8.918158727    15.647463664    -0.000008192
       S     9.020438518    19.117948761    -2.943532993
       S     5.975116181    24.283408724     2.987933654
      Mo     5.980712614    20.852723431     0.000000414
       S     5.975106187    24.283414808    -2.987924237
       S     2.940534290    29.532347535     3.016044342
      Mo     3.025999607    26.109662159     0.000013033
       S     2.940526969    29.532353930    -3.016010596
       S    -0.001493163    34.745417599     2.930414952
      Mo    -0.006791313    31.205696865     0.000023111
       S    -0.001496409    34.745422670    -2.930361036
       S    -3.007730861    39.980496288     2.935748362
      Mo    -3.009732628    36.499734509     0.000029645
       S    -3.007730108    39.980495724    -2.935686541
       S    -6.003777137    45.165975943     2.915895314
      Mo    -6.123266834    41.606274885     0.000030381
       S    -6.003773946    45.165971484    -2.915838446
       S    -9.036607081    50.417623104     2.920852384
      Mo    -9.025586874    46.925435831     0.000024470
       S    -9.036601852    50.417616079    -2.920811743
       S   -12.033955221    55.604121325     2.941789576
      Mo   -12.165802263    52.100595932     0.000015222
       S   -12.033950703    55.604112911    -2.941770408
       S   -15.032181981    60.832340159     2.923215601
      Mo   -15.047100778    57.329136754     0.000004141
       S   -15.032183853    60.832328986    -2.923222101
       S    24.118681435     3.449237556     3.020318052
      Mo    24.157296561     0.066377721    -0.000007642
       S    24.118680377     3.449227089    -3.020347970
       S    21.046671604     8.667418738     2.898063435
      Mo    21.182699309     5.095672460    -0.000017716
       S    21.046666775     8.667409084    -2.898109084
       S    18.083343632    13.922247477     3.089901894
      Mo    18.063165591    10.651956405    -0.000022932
       S    18.083333416    13.922243504    -3.089952129
       S    15.057764505    19.109733369     2.928831213
      Mo    15.261588237    15.586554894    -0.000019953
       S    15.057749620    19.109735440    -2.928869350
       S    12.068858056    24.303289394     3.010511749
      Mo    12.033549292    20.921980104    -0.000011068
       S    12.068846179    24.303294800    -3.010526852
       S     9.024440844    29.553577414     2.726867953
      Mo     9.039084576    25.754030835     0.000000861
       S     9.024427539    29.553585044    -2.726857957
       S     5.997245009    34.811925026     2.981478513
      Mo     5.710019376    31.417769547     0.000014026
       S     5.997235639    34.811932993    -2.981440303
       S     3.003935311    39.979591433     2.977662249
      Mo     3.034608846    36.544185281     0.000026022
       S     3.003929209    39.979593829    -2.977605535
       S    -0.003473736    45.193563825     2.963651040
      Mo     0.038045028    41.723105611     0.000031142
       S    -0.003476567    45.193560322    -2.963592350
       S    -3.029880790    50.389696008     3.019185156
      Mo    -2.968695681    47.010140586     0.000028422
       S    -3.029879102    50.389689733    -3.019135989
       S    -6.017838598    55.602273467     2.960757833
      Mo    -5.928189084    52.123935173     0.000021063
       S    -6.017835677    55.602260993    -2.960729088
       S    -9.027888704    60.813742594     2.975153290
      Mo    -9.006486923    57.370027664     0.000008439
       S    -9.027885612    60.813728376    -2.975155416
       S    30.103664819     3.476459903     2.925343188
      Mo    30.056570094    -0.036250248    -0.000003880
       S    30.103665555     3.476449743    -2.925367355
       S    27.103440618     8.678472560     2.944856121
      Mo    27.024319211     5.175066635    -0.000017547
       S    27.103437355     8.678461496    -2.944906925
       S    24.095829438    13.903890482     2.915112067
      Mo    24.093504974    10.399439896    -0.000027164
       S    24.095825537    13.903883328    -2.915176192
       S    21.097724316    19.102477176     2.899396890
      Mo    20.940757470    15.530040959    -0.000031039
       S    21.097714599    19.102477129    -2.899459881
       S    18.066314414    24.334644967     2.958060462
      Mo    18.055353898    20.894717530    -0.000026089
       S    18.066300397    24.334653258    -2.958105338
       S    15.110576079    29.529653602     2.978676311
      Mo    15.028819868    26.045570558    -0.000012809
       S    15.110562135    29.529661672    -2.978694340
       S    12.063602383    34.820851138     3.011135440
      Mo    12.311825662    31.473342054     0.000000967
       S    12.063591050    34.820859623    -3.011121051
       S     9.025919442    39.967554390     2.942338204
      Mo     9.056678599    36.472462087     0.000015755
       S     9.025911221    39.967560080    -2.942301056
       S     6.024614644    45.186670710     2.937529687
      Mo     5.993082662    41.680296795     0.000025148
       S     6.024609763    45.186671209    -2.937476553
       S     3.001755343    50.409464642     2.911733324
      Mo     2.991088555    46.899788809     0.000027750
       S     3.001754032    50.409458778    -2.911682496
       S    -0.005202141    55.610365525     2.929226629
      Mo    -0.131866829    52.087504778     0.000023232
       S    -0.005198352    55.610355493    -2.929192240
       S    -3.003243192    60.826754725     2.941371409
      Mo    -3.035599039    57.341535080     0.000011641
       S    -3.003240553    60.826740364    -2.941366281
       S    36.115026288     3.466085782     2.944469744
      Mo    36.201400482    -0.038908980    -0.000000394
       S    36.115030734     3.466071910    -2.944486899
       S    33.094468032     8.684294425     3.001408098
      Mo    33.125451301     5.288769562    -0.000014992
       S    33.094473829     8.684283145    -3.001454359
       S    30.108801849    13.887262776     2.972410594
      Mo    30.159317136    10.419301277    -0.000029565
       S    30.108803333    13.887256656    -2.972478872
       S    27.086204655    19.107505738     3.003439794
      Mo    27.162208358    15.698062518    -0.000035548
       S    27.086200197    19.107504143    -3.003512649
       S    24.082543996    24.336897119     2.970804805
      Mo    24.186752319    20.881228639    -0.000034896
       S    24.082534576    24.336902285    -2.970869826
       S    21.076576941    29.530108873     2.964118082
      Mo    21.079300723    26.061427835    -0.000026301
       S    21.076565751    29.530116514    -2.964162998
       S    18.051217612    34.764734798     2.936964485
      Mo    18.079844195    31.246721701    -0.000014222
       S    18.051206109    34.764746326    -2.936980109
       S    15.048235383    39.982359656     2.973331575
      Mo    14.997114507    36.535789828     0.000003059
       S    15.048227808    39.982365040    -2.973316329
       S    12.022073804    45.189420946     2.931723902
      Mo    12.053425103    41.677121832     0.000014628
       S    12.022064769    45.189425830    -2.931687840
       S     9.019984760    50.371515489     3.054839297
      Mo     9.014987659    47.043807177     0.000024058
       S     9.019980561    50.371510366    -3.054794898
       S     6.001686925    55.598853646     2.918804974
      Mo     6.154634761    52.049070287     0.000023005
       S     6.001685891    55.598841327    -2.918770239
       S     3.000948195    60.835574432     3.023298744
      Mo     2.988268895    57.475529922     0.000014664
       S     3.000953932    60.835561107    -3.023285573
       S    42.144253771     3.473406768     2.928044318
      Mo    42.040747178    -0.050077143     0.000005218
       S    42.144260428     3.473393620    -2.928049196
       S    39.130293147     8.680408968     2.946973153
      Mo    39.113952793     5.211863119    -0.000010131
       S    39.130301813     8.680398243    -2.947007889
       S    36.138839523    13.893889383     2.905472740
      Mo    36.053202897    10.338266936    -0.000023649
       S    36.138847493    13.893880360    -2.905530041
       S    33.113323127    19.119328805     2.915367455
      Mo    33.064829110    15.610182046    -0.000034472
       S    33.113324958    19.119326349    -2.915440613
       S    30.102125093    24.335024929     2.931729625
      Mo    30.001716711    20.820532102    -0.000038119
       S    30.102123254    24.335028679    -2.931803728
       S    27.101915850    29.538617190     2.943992245
      Mo    27.061151115    26.057437360    -0.000035057
       S    27.101911256    29.538624644    -2.944054410
       S    24.080387743    34.750614460     2.946322551
      Mo    24.063318528    31.260502734    -0.000025424
       S    24.080378802    34.750625468    -2.946361092
       S    21.065133198    39.977831359     2.926684948
      Mo    21.074690780    36.480933871    -0.000010582
       S    21.065124710    39.977842472    -2.926692640
       S    18.056664690    45.197002805     2.968682023
      Mo    18.012970090    41.735642279     0.000004585
       S    18.056655189    45.197007893    -2.968665511
       S    15.050001313    50.405447726     2.913716071
      Mo    15.070048832    46.900957573     0.000014355
       S    15.049996794    50.405449406    -2.913684723
       S    12.050123562    55.595355808     2.907227691
      Mo    11.893187919    52.028606361     0.000018226
       S    12.050124224    55.595350118    -2.907196717
       S     9.027750666    60.832761048     2.932449307
      Mo     9.018640249    57.355464462     0.000013579
       S     9.027754509    60.832751852    -2.932430683
       S    48.147941736     3.469286603     2.929107946
      Mo    48.261535814    -0.061666766     0.000008738
       S    48.147946925     3.469276509    -2.929102448
       S    45.151528597     8.686030906     3.026125981
      Mo    45.149380384     5.330001517    -0.000003046
       S    45.151540713     8.686022297    -3.026142261
       S    42.131954134    13.887017446     2.916496584
      Mo    42.223886223    10.331765489    -0.000015993
       S    42.131964795    13.887010185    -2.916536791
       S    39.137401749    19.108645715     3.074250790
      Mo    39.150315197    15.815733096    -0.000027055
       S    39.137410812    19.108643282    -3.074307935
       S    36.104023004    24.316140412     2.898964273
      Mo    36.278831300    20.735846072    -0.000034502
       S    36.104027357    24.316142509    -2.899032219
       S    33.113187957    29.561124123     3.035807974
      Mo    33.077719167    26.222370447    -0.000035516
       S    33.113190030    29.561131784    -3.035870261
       S    30.073836525    34.753837470     2.907138806
      Mo    30.192463556    31.193849604    -0.000029858
       S    30.073832777    34.753846721    -2.907187678
       S    27.066720436    39.956409117     3.056456789
      Mo    27.031184263    36.632345502    -0.000019805
       S    27.066716287    39.956422447    -3.056480318
       S    24.057372617    45.170008710     2.911786275
      Mo    24.188444825    41.610870421    -0.000005655
       S    24.057366238    45.170018571    -2.911787793
       S    21.084391792    50.390619490     3.021613435
      Mo    21.012042315    47.018594624     0.000005475
       S    21.084384569    50.390623501    -3.021595686
       S    18.054172887    55.609050009     2.927052976
      Mo    18.184960122    52.079614464     0.000014179
       S    18.054169840    55.609048712    -2.927023753
       S    15.045083788    60.833610909     3.041287799
      Mo    15.066225898    57.501731468     0.000014905
       S    15.045084760    60.833604100    -3.041264144
       S    54.186174550     3.468765462     2.922485974
      Mo    54.064178408    -0.069845505     0.000009983
       S    54.186179504     3.468761844    -2.922470580
       S    51.165341499     8.698570919     2.931398104
      Mo    51.162539246     5.217097362     0.000003330
       S    51.165351728     8.698566370    -2.931396824
       S    48.169050627    13.896700392     2.936085064
      Mo    48.062136472    10.375009651    -0.000004776
       S    48.169062548    13.896694819    -2.936100228
       S    45.149295414    19.136187538     2.908117070
      Mo    45.161257136    15.629684586    -0.000015600
       S    45.149306160    19.136186524    -2.908150930
       S    42.152065936    24.323118791     2.920722714
      Mo    41.979672706    20.776330268    -0.000023287
       S    42.152076015    24.323120733    -2.920767773
       S    39.129487429    29.555619357     2.939234610
      Mo    39.140828784    26.087577642    -0.000028942
       S    39.129494693    29.555625294    -2.939286655
       S    36.135448107    34.749459335     2.932370608
      Mo    36.029857394    31.224778509    -0.000027235
       S    36.135453321    34.749467056    -2.932416767
       S    33.104141321    39.979082725     2.916005258
      Mo    33.126043283    36.489263897    -0.000022238
       S    33.104138728    39.979094157    -2.916034850
       S    30.104957675    45.166100949     2.912454141
      Mo    29.944712578    41.610208919    -0.000010009
       S    30.104954831    45.166110823    -2.912462807
       S    27.088746037    50.405928545     2.934975814
      Mo    27.088117235    46.932051059    -0.000000894
       S    27.088744147    50.405935069    -2.934970967
       S    24.082372454    55.602036719     2.943761634
      Mo    23.998001761    52.091877889     0.000006255
       S    24.082369145    55.602041331    -2.943742429
       S    21.063170732    60.829268644     2.931401295
      Mo    21.080169085    57.343151687     0.000012497
       S    21.063170987    60.829265518    -2.931379817
       S    60.185004098     3.471865807     2.935808055
      Mo    60.275697642    -0.047955716     0.000009776
       S    60.185005612     3.471865806    -2.935788710
       S    57.173693337     8.681674203     3.037573116
      Mo    57.194874155     5.335656576     0.000009057
       S    57.173700151     8.681672346    -3.037557112
       S    54.167477901    13.892633643     2.930094239
      Mo    54.276950653    10.360098411     0.000003794
       S    54.167488036    13.892631288    -2.930090203
       S    51.177242341    19.108361026     3.031028528
      Mo    51.166736742    15.749172943    -0.000003371
       S    51.177254120    19.108359369    -3.031037085
       S    48.161394217    24.328431011     2.937033482
      Mo    48.294264640    20.813042957    -0.000010855
       S    48.161406419    24.328433580    -2.937051775
       S    45.148622537    29.550734895     3.014938446
      Mo    45.172466632    26.179271477    -0.000015447
       S    45.148637409    29.550739748    -3.014964755
       S    42.131873875    34.751349809     2.939443645
      Mo    42.218289847    31.239629695    -0.000019247
       S    42.131884878    34.751357682    -2.939472922
       S    39.140307347    39.962043140     3.028734140
      Mo    39.142852720    36.599567820    -0.000017963
       S    39.140312647    39.962054205    -3.028757322
       S    36.109363127    45.176866201     2.926890864
      Mo    36.242637971    41.646208509    -0.000011389
       S    36.109362328    45.176875834    -2.926903284
       S    33.096277575    50.402083520     3.038050258
      Mo    33.114796275    47.063537332    -0.000003061
       S    33.096275254    50.402090080    -3.038048898
       S    30.082650777    55.598128013     2.936220461
      Mo    30.193118313    52.077413207     0.000003848
       S    30.082646969    55.598131131    -2.936207609
       S    27.079989769    60.813429285     3.010263361
      Mo    27.072575404    57.427665159     0.000009304
       S    27.079988204    60.813428034    -3.010244877
       S    66.216538910     3.474321646     2.938042440
      Mo    66.118400517    -0.042079534     0.000007810
       S    66.216536306     3.474322209    -2.938024302
       S    63.208532239     8.701593164     2.914382631
      Mo    63.203520298     5.201263919     0.000010091
       S    63.208531902     8.701592244    -2.914363957
       S    60.205167584    13.898808056     2.920293587
      Mo    60.061236403    10.354254095     0.000009715
       S    60.205173591    13.898807855    -2.920274381
       S    57.192087241    19.129571628     2.924675913
      Mo    57.179589060    15.640788579     0.000006116
       S    57.192097579    19.129572749    -2.924662221
       S    54.182199798    24.324332207     2.932029345
      Mo    54.072629131    20.794656476     0.000001752
       S    54.182213039    24.324336455    -2.932021082
       S    51.166442701    29.549709927     2.943349349
      Mo    51.166898547    26.076717279    -0.000001880
       S    51.166454549    29.549715288    -2.943347647
       S    48.167132663    34.748198909     2.927812390
      Mo    48.081996451    31.219042795    -0.000004170
       S    48.167144268    34.748204734    -2.927814713
       S    45.147619156    39.977081418     2.924807633
      Mo    45.140542262    36.484241489    -0.000005873
       S    45.147625917    39.977086891    -2.924813892
       S    42.145459009    45.173792031     2.937293420
      Mo    42.037559293    41.657005655    -0.000005371
       S    42.145465438    45.173798214    -2.937297765
       S    39.125558743    50.394672559     2.932379733
      Mo    39.133652374    46.912932280    -0.000003835
       S    39.125560607    50.394677495    -2.932382192
       S    36.131925518    55.600710311     2.908392784
      Mo    36.004451834    52.043736109     0.000000181
       S    36.131922070    55.600713882    -2.908388570
       S    33.102587068    60.824450914     2.928264375
      Mo    33.088003018    57.343136817     0.000004950
       S    33.102583436    60.824450943    -2.928254348
